18

C     -2.464180    0.946076    1.082337
C     -1.213801    0.786844    0.678158
C     -0.855276    0.279975   -0.670609
C     -0.054422   -0.980497   -0.623413
C      1.245289   -0.877249    0.096668
C      2.211768    0.100749   -0.442642
H     -3.319872    0.709622    0.435534
H     -2.686255    1.314097    2.062299
H     -0.424794    1.039790    1.367684
H     -1.821181    0.030509   -1.181208
H     -0.400735    1.067681   -1.311842
H      0.128450   -1.300534   -1.671613
H     -0.673833   -1.765465   -0.153409
H      1.039548   -0.643447    1.180526
H      1.729431   -1.876248    0.111337
H      1.780539    0.865030   -1.116453
H      2.707715    0.679066    0.378148
H      3.071609   -0.375998   -0.999471
