60

O     -0.520268   -1.728049    3.890214
C     -0.385140   -1.195118    3.014891
Rh    -0.071221   -0.042713    1.157757
P      1.758038   -0.044596    0.443901
N      1.674248   -0.904064   -1.067995
C      1.704840   -0.348412   -2.307460
C      1.629500   -1.303173   -3.268178
C      1.546898   -2.523327   -2.630324
C      1.577425   -2.231449   -1.287198
N      2.872666   -0.881580    1.513868
C      3.862970   -1.704960    1.128541
C      4.528925   -2.176925    2.236935
C      3.922161   -1.620660    3.343879
C      2.902868   -0.826564    2.847766
N      2.367636    1.522632    0.087595
C      3.335645    1.825376   -0.782393
C      3.556027    3.183696   -0.794324
C      2.694169    3.748588    0.100391
C      1.975181    2.714119    0.629775
P     -1.779398    0.089170    0.131184
N     -3.152487   -0.032719    1.185029
C     -4.095618   -0.990359    1.306407
C     -5.007488   -0.669375    2.284947
C     -4.617123    0.539810    2.795689
C     -3.496608    0.904929    2.117973
N     -1.901889    1.608274   -0.670337
C     -3.030626    2.373174   -0.775865
C     -2.752402    3.507172   -1.477905
C     -1.436309    3.477343   -1.829395
C     -0.942773    2.294084   -1.315976
N     -1.821539   -1.261768   -0.939650
C     -1.769453   -1.212855   -2.283408
C     -1.827091   -2.471005   -2.773355
C     -1.917828   -3.335643   -1.711543
C     -1.912265   -2.553809   -0.581579
H     -0.072082    1.704569    2.428180
H      1.780252    0.706849   -2.523131
H      1.626191   -1.236182   -4.357767
H      1.473691   -3.500224   -3.085717
H      1.532333   -2.945063   -0.478231
H      4.134010   -1.984499    0.117260
H      5.376837   -2.857523    2.307698
H      4.191585   -1.776826    4.379248
H      2.219759   -0.239600    3.437795
H      3.858220    1.094101   -1.381189
H      4.275750    3.698071   -1.398843
H      2.640122    4.814935    0.305214
H      1.205984    2.837516    1.373353
H     -4.127480   -1.896372    0.706539
H     -5.875000   -1.235617    2.613375
H     -5.092561    1.120460    3.590704
H     -2.955450    1.835320    2.311155
H     -4.007146    2.140214   -0.374855
H     -3.415936    4.323377   -1.741935
H     -0.869155    4.226560   -2.400033
H      0.085520    1.993497   -1.439205
H     -1.692584   -0.323804   -2.926969
H     -1.809733   -2.828430   -3.814205
H     -1.980967   -4.426031   -1.782647
H     -1.973832   -2.974541    0.414346
